8
Title Card Required E=-7.987053855711e+01
C  0.0000000000  0.0000000000  0.0000000000 
C  1.5269247434 -0.0000000000  0.0000000000 
H -0.3971728936  1.0154606043  0.0000000000 
H -0.3971641846 -0.5077333787  0.8794161238 
H -0.3971643190 -0.5077334735 -0.8794160267 
H  1.9240954430 -1.0154618576 -0.0000000313 
H  1.9240902501  0.5077311790 -0.8794166085 
H  1.9240901933  0.5077313259  0.8794165420 
