%NoSave
%NProcShared=4
%Mem=4GB
%chk=ethane_opt_align_angleminus.chk
#P B3LYP/6-311++G(2d,3p) Opt(Modredundant,MaxCycles=999,VeryTight) scf=(xqc,conver=10,maxcycle=999) Int(Grid=Superfine,Acc2e=12) NoSymm

Torsion of dihedral H3-C1-C2-H6, C1 fixed at origin, C1-C2 bond length fixed

0 1
C  0.000000  0.000000  0.000000
C  1.528903  0.000000  0.000000
H -0.397165  1.015975  0.000000
H -0.397165 -0.507987  0.879860
H -0.397165 -0.507987 -0.879860
H  1.926067 -1.015975  0.000000
H  1.926067  0.507987 -0.879860
H  1.926067  0.507987  0.879860

X 1 F
B 1 2 F
D 3 1 2 6 S 180 -1.0



